/*--------------------------------*- C++ -*----------------------------------*\
| =========                 |                                                 |
| \\      /  F ield         | OpenFOAM: The Open Source CFD Toolbox           |
|  \\    /   O peration     | Version:  xxxxxxx                               |
|   \\  /    A nd           | Revision: exported                              |
|    \\/     M anipulation  | Web:      http://www.OpenFOAM.org               |
\*---------------------------------------------------------------------------*/
FoamFile
{
    version     2.0;
    format      ascii;
    class       polyBoundaryMesh;
    location    "constant/polyMesh";
    object      boundary;
}
// * * * * * * * * * * * * * * * * * * * * * * * * * * * * * * * * * * * * * //


4
(
    far
    {
        type            patch;
        nFaces          4636;
        startFace       472188;
    }
    wall
    {
        type            patch;
        nFaces          5272;
        startFace       476824;
    }
    procBoundary1to0
    {
        type            processor;
        nFaces          2672;
        startFace       482096;
        matchTolerance  0.000100;
        myProcNo        1;
        neighbProcNo    0;
    }
    procBoundary1to2
    {
        type            processor;
        nFaces          3172;
        startFace       484768;
        matchTolerance  0.000100;
        myProcNo        1;
        neighbProcNo    2;
    }
)

// ************************************************************************* //