/*--------------------------------*- C++ -*----------------------------------*\
| =========                 |                                                 |
| \\      /  F ield         | OpenFOAM: The Open Source CFD Toolbox           |
|  \\    /   O peration     | Version:  xxxxxxx                               |
|   \\  /    A nd           | Revision: exported                              |
|    \\/     M anipulation  | Web:      http://www.OpenFOAM.org               |
\*---------------------------------------------------------------------------*/
FoamFile
{
    version     2.0;
    format      ascii;
    class       polyBoundaryMesh;
    location    "constant/polyMesh";
    object      boundary;
}
// * * * * * * * * * * * * * * * * * * * * * * * * * * * * * * * * * * * * * //


3
(
    wall
    {
        type            patch;
        nFaces          83860;
        startFace       863472;
    }
    procBoundary3to0
    {
        type            processor;
        nFaces          1296;
        startFace       947332;
        matchTolerance  0.000100;
        myProcNo        3;
        neighbProcNo    0;
    }
    procBoundary3to2
    {
        type            processor;
        nFaces          2108;
        startFace       948628;
        matchTolerance  0.000100;
        myProcNo        3;
        neighbProcNo    2;
    }
)

// ************************************************************************* //