/*--------------------------------*- C++ -*----------------------------------*\
| =========                 |                                                 |
| \\      /  F ield         | OpenFOAM: The Open Source CFD Toolbox           |
|  \\    /   O peration     | Version:  xxxxxxx                               |
|   \\  /    A nd           | Revision: exported                              |
|    \\/     M anipulation  | Web:      http://www.OpenFOAM.org               |
\*---------------------------------------------------------------------------*/
FoamFile
{
    version     2.0;
    format      ascii;
    class       polyBoundaryMesh;
    location    "constant/polyMesh";
    object      boundary;
}
// * * * * * * * * * * * * * * * * * * * * * * * * * * * * * * * * * * * * * //


4
(
    far
    {
        type            patch;
        nFaces          4100;
        startFace       470020;
    }
    wall
    {
        type            patch;
        nFaces          5976;
        startFace       474120;
    }
    procBoundary0to1
    {
        type            processor;
        nFaces          2672;
        startFace       480096;
        matchTolerance  0.000100;
        myProcNo        0;
        neighbProcNo    1;
    }
    procBoundary0to2
    {
        type            processor;
        nFaces          2572;
        startFace       482768;
        matchTolerance  0.000100;
        myProcNo        0;
        neighbProcNo    2;
    }
)

// ************************************************************************* //