/*--------------------------------*- C++ -*----------------------------------*\
| =========                 |                                                 |
| \\      /  F ield         | OpenFOAM: The Open Source CFD Toolbox           |
|  \\    /   O peration     | Version:  xxxxxxx                               |
|   \\  /    A nd           | Revision: exported                              |
|    \\/     M anipulation  | Web:      http://www.OpenFOAM.org               |
\*---------------------------------------------------------------------------*/
FoamFile
{
    version     2.0;
    format      ascii;
    class       polyBoundaryMesh;
    location    "constant/polyMesh";
    object      boundary;
}
// * * * * * * * * * * * * * * * * * * * * * * * * * * * * * * * * * * * * * //


4
(
    far
    {
        type            patch;
        nFaces          6168;
        startFace       472752;
    }
    wall
    {
        type            patch;
        nFaces          4728;
        startFace       478920;
    }
    procBoundary2to0
    {
        type            processor;
        nFaces          2572;
        startFace       483648;
        matchTolerance  0.000100;
        myProcNo        2;
        neighbProcNo    0;
    }
    procBoundary2to1
    {
        type            processor;
        nFaces          3172;
        startFace       486220;
        matchTolerance  0.000100;
        myProcNo        2;
        neighbProcNo    1;
    }
)

// ************************************************************************* //