/*--------------------------------*- C++ -*----------------------------------*\
| =========                 |                                                 |
| \\      /  F ield         | OpenFOAM: The Open Source CFD Toolbox           |
|  \\    /   O peration     | Version:  xxxxxxx                               |
|   \\  /    A nd           | Revision: exported                              |
|    \\/     M anipulation  | Web:      http://www.OpenFOAM.org               |
\*---------------------------------------------------------------------------*/
FoamFile
{
    version     2.0;
    format      ascii;
    class       polyBoundaryMesh;
    location    "constant/polyMesh";
    object      boundary;
}
// * * * * * * * * * * * * * * * * * * * * * * * * * * * * * * * * * * * * * //


4
(
    wall
    {
        type            patch;
        nFaces          63676;
        startFace       873888;
    }
    procBoundary2to0
    {
        type            processor;
        nFaces          160;
        startFace       937564;
        matchTolerance  0.000100;
        myProcNo        2;
        neighbProcNo    0;
    }
    procBoundary2to1
    {
        type            processor;
        nFaces          328;
        startFace       937724;
        matchTolerance  0.000100;
        myProcNo        2;
        neighbProcNo    1;
    }
    procBoundary2to3
    {
        type            processor;
        nFaces          2108;
        startFace       938052;
        matchTolerance  0.000100;
        myProcNo        2;
        neighbProcNo    3;
    }
)

// ************************************************************************* //