/*--------------------------------*- C++ -*----------------------------------*\
| =========                 |                                                 |
| \\      /  F ield         | OpenFOAM: The Open Source CFD Toolbox           |
|  \\    /   O peration     | Version:  xxxxxxx                               |
|   \\  /    A nd           | Revision: exported                              |
|    \\/     M anipulation  | Web:      http://www.OpenFOAM.org               |
\*---------------------------------------------------------------------------*/
FoamFile
{
    version     2.0;
    format      ascii;
    class       polyBoundaryMesh;
    location    "constant/polyMesh";
    object      boundary;
}
// * * * * * * * * * * * * * * * * * * * * * * * * * * * * * * * * * * * * * //


2
(
    wall
    {
        type            patch;
        nFaces          86816;
        startFace       1164184;
    }
    procBoundary2to1
    {
        type            processor;
        nFaces          2032;
        startFace       1251000;
        matchTolerance  0.000100;
        myProcNo        2;
        neighbProcNo    1;
    }
)

// ************************************************************************* //