/*--------------------------------*- C++ -*----------------------------------*\
| =========                 |                                                 |
| \\      /  F ield         | OpenFOAM: The Open Source CFD Toolbox           |
|  \\    /   O peration     | Version:  xxxxxxx                               |
|   \\  /    A nd           | Revision: exported                              |
|    \\/     M anipulation  | Web:      http://www.OpenFOAM.org               |
\*---------------------------------------------------------------------------*/
FoamFile
{
    version     2.0;
    format      ascii;
    class       polyBoundaryMesh;
    location    "constant/polyMesh";
    object      boundary;
}
// * * * * * * * * * * * * * * * * * * * * * * * * * * * * * * * * * * * * * //


2
(
    wall
    {
        type            patch;
        nFaces          145624;
        startFace       1739228;
    }
    procBoundary1to0
    {
        type            processor;
        nFaces          1872;
        startFace       1884852;
        matchTolerance  0.000100;
        myProcNo        1;
        neighbProcNo    0;
    }
)

// ************************************************************************* //