/*--------------------------------*- C++ -*----------------------------------*\
| =========                 |                                                 |
| \\      /  F ield         | OpenFOAM: The Open Source CFD Toolbox           |
|  \\    /   O peration     | Version:  xxxxxxx                               |
|   \\  /    A nd           | Revision: exported                              |
|    \\/     M anipulation  | Web:      http://www.OpenFOAM.org               |
\*---------------------------------------------------------------------------*/
FoamFile
{
    version     2.0;
    format      ascii;
    class       polyBoundaryMesh;
    location    "constant/polyMesh";
    object      boundary;
}
// * * * * * * * * * * * * * * * * * * * * * * * * * * * * * * * * * * * * * //


5
(
    wall1
    {
        type            patch;
        nFaces          80;
        startFace       444;
    }
    wall2
    {
        type            patch;
        nFaces          36;
        startFace       524;
    }
    wall3
    {
        type            patch;
        nFaces          20;
        startFace       560;
    }
    procBoundary1to0
    {
        type            processor;
        nFaces          20;
        startFace       580;
        matchTolerance  0.000100;
        myProcNo        1;
        neighbProcNo    0;
    }
    procBoundary1to2
    {
        type            processor;
        nFaces          12;
        startFace       600;
        matchTolerance  0.000100;
        myProcNo        1;
        neighbProcNo    2;
    }
)

// ************************************************************************* //