/*--------------------------------*- C++ -*----------------------------------*\
| =========                 |                                                 |
| \\      /  F ield         | OpenFOAM: The Open Source CFD Toolbox           |
|  \\    /   O peration     | Version:  xxxxxxx                               |
|   \\  /    A nd           | Revision: exported                              |
|    \\/     M anipulation  | Web:      http://www.OpenFOAM.org               |
\*---------------------------------------------------------------------------*/
FoamFile
{
    version     2.0;
    format      ascii;
    class       polyBoundaryMesh;
    location    "constant/polyMesh";
    object      boundary;
}
// * * * * * * * * * * * * * * * * * * * * * * * * * * * * * * * * * * * * * //


5
(
    far
    {
        type            patch;
        nFaces          3400;
        startFace       352632;
    }
    wall
    {
        type            patch;
        nFaces          4328;
        startFace       356032;
    }
    procBoundary3to0
    {
        type            processor;
        nFaces          2052;
        startFace       360360;
        matchTolerance  0.000100;
        myProcNo        3;
        neighbProcNo    0;
    }
    procBoundary3to1
    {
        type            processor;
        nFaces          772;
        startFace       362412;
        matchTolerance  0.000100;
        myProcNo        3;
        neighbProcNo    1;
    }
    procBoundary3to2
    {
        type            processor;
        nFaces          2328;
        startFace       363184;
        matchTolerance  0.000100;
        myProcNo        3;
        neighbProcNo    2;
    }
)

// ************************************************************************* //