/*--------------------------------*- C++ -*----------------------------------*\
| =========                 |                                                 |
| \\      /  F ield         | OpenFOAM: The Open Source CFD Toolbox           |
|  \\    /   O peration     | Version:  xxxxxxx                               |
|   \\  /    A nd           | Revision: exported                              |
|    \\/     M anipulation  | Web:      http://www.OpenFOAM.org               |
\*---------------------------------------------------------------------------*/
FoamFile
{
    version     2.0;
    format      ascii;
    class       polyBoundaryMesh;
    location    "constant/polyMesh";
    object      boundary;
}
// * * * * * * * * * * * * * * * * * * * * * * * * * * * * * * * * * * * * * //


6
(
    wall1
    {
        type            patch;
        nFaces          44;
        startFace       468;
    }
    wall2
    {
        type            patch;
        nFaces          32;
        startFace       512;
    }
    wall3
    {
        type            patch;
        nFaces          36;
        startFace       544;
    }
    procBoundary2to0
    {
        type            processor;
        nFaces          8;
        startFace       580;
        matchTolerance  0.000100;
        myProcNo        2;
        neighbProcNo    0;
    }
    procBoundary2to1
    {
        type            processor;
        nFaces          12;
        startFace       588;
        matchTolerance  0.000100;
        myProcNo        2;
        neighbProcNo    1;
    }
    procBoundary2to3
    {
        type            processor;
        nFaces          20;
        startFace       600;
        matchTolerance  0.000100;
        myProcNo        2;
        neighbProcNo    3;
    }
)

// ************************************************************************* //