/*--------------------------------*- C++ -*----------------------------------*\
| =========                 |                                                 |
| \\      /  F ield         | OpenFOAM: The Open Source CFD Toolbox           |
|  \\    /   O peration     | Version:  xxxxxxx                               |
|   \\  /    A nd           | Revision: exported                              |
|    \\/     M anipulation  | Web:      http://www.OpenFOAM.org               |
\*---------------------------------------------------------------------------*/
FoamFile
{
    version     2.0;
    format      ascii;
    class       polyBoundaryMesh;
    location    "constant/polyMesh";
    object      boundary;
}
// * * * * * * * * * * * * * * * * * * * * * * * * * * * * * * * * * * * * * //


4
(
    wall
    {
        type            patch;
        nFaces          80040;
        startFace       864352;
    }
    procBoundary0to1
    {
        type            processor;
        nFaces          1544;
        startFace       944392;
        matchTolerance  0.000100;
        myProcNo        0;
        neighbProcNo    1;
    }
    procBoundary0to2
    {
        type            processor;
        nFaces          160;
        startFace       945936;
        matchTolerance  0.000100;
        myProcNo        0;
        neighbProcNo    2;
    }
    procBoundary0to3
    {
        type            processor;
        nFaces          1296;
        startFace       946096;
        matchTolerance  0.000100;
        myProcNo        0;
        neighbProcNo    3;
    }
)

// ************************************************************************* //